LTspice 24.0.12 for Windows
Circuit: * F:\projects\guitar-effects-board\analog-simulation.asc
Start Time: Thu Sep 12 16:30:29 2024
Warning: Multiple definitions of model "2scr375p" Type: BJT
Warning: Multiple definitions of model "bc857b" Type: BJT
Warning: Multiple definitions of model "bc847c" Type: BJT
Warning: Multiple definitions of model "bc847b" Type: BJT
solver = Normal
Maximum thread count: 4
tnom = 27
temp = 27
method = modified trap
Direct Newton iteration for .op point succeeded.
Total elapsed time: 185.910 seconds.

